Version 4
SHEET 1 880 680
WIRE 48 -192 -128 -192
WIRE 160 -192 48 -192
WIRE 48 -48 48 -192
WIRE 160 16 160 -192
WIRE 160 16 48 16
WIRE 160 32 160 16
WIRE 432 32 160 32
WIRE 576 32 432 32
WIRE 160 48 160 32
WIRE 112 128 -128 128
WIRE 432 160 432 112
WIRE 160 208 160 144
WIRE 432 272 432 240
WIRE 160 320 160 288
FLAG 160 320 0
FLAG -128 -112 0
FLAG -128 208 0
FLAG 576 32 Vout
FLAG 432 336 0
SYMBOL voltage -128 112 R0
WINDOW 123 0 0 Left 0
WINDOW 39 0 0 Left 0
SYMATTR InstName Vin
SYMATTR Value 5
SYMBOL voltage -128 -208 R0
WINDOW 123 0 0 Left 0
WINDOW 39 0 0 Left 0
SYMATTR InstName VDD
SYMATTR Value PULSE(0 400 0 10m 10m 5 10 3)
SYMBOL nmos 112 48 R0
SYMATTR InstName M1
SYMATTR Value R6020PNJ
SYMBOL res 416 144 R0
SYMATTR InstName R2
SYMATTR Value 48
SYMBOL res 144 192 R0
SYMATTR InstName R3
SYMATTR Value 10k
SYMBOL diode 64 16 R180
WINDOW 0 24 64 Left 2
WINDOW 3 24 0 Left 2
SYMATTR InstName D1
SYMBOL res 416 16 R0
SYMATTR InstName R4
SYMATTR Value 1Meg
SYMBOL cap 416 272 R0
SYMATTR InstName C1
SYMATTR Value 16n
TEXT -162 232 Left 2 !;op
TEXT -160 264 Left 2 !.tran 20
